Circuit: * C:\Users\Lorne\Desktop\Personal Projects\Currently Active\555 Timer Functional & Turing Complete Project\EE\Simulations\555_D_Flip_Flop.asc

WARNING: Less than two connections to node NC_02.  This node is used by S:U1:1.
WARNING: Less than two connections to node NC_04.  This node is used by S:U2:1.
WARNING: Less than two connections to node NC_14.  This node is used by S:U7:1.
WARNING: Less than two connections to node NC_16.  This node is used by S:U8:1.
WARNING: Less than two connections to node NC_18.  This node is used by S:U9:1.
Direct Newton iteration for .op point succeeded.

Date: Thu Dec 30 17:17:59 2021
Total elapsed time: 0.241 seconds.

tnom = 27
temp = 27
method = modified trap
totiter = 7267
traniter = 7258
tranpoints = 1966
accept = 1754
rejected = 212
matrix size = 103
fillins = 0
solver = Normal
Thread vector: 17.4/7.0[6] 5.3/3.0[6] 2.2/4.3[1] 0.2/1.8[1]  2592/500
Matrix Compiler1: 2.82 KB object code size  2.2/1.2/[0.3]
Matrix Compiler2: 5.27 KB object code size  1.2/2.4/[0.3]

