Circuit: * C:\Users\Lorne\Desktop\Personal Projects\Currently Active\555 Timer Functional & Turing Complete Project\EE\Simulations\555_NOR_Gate.asc

Direct Newton iteration for .op point succeeded.

Date: Thu Dec 30 17:02:28 2021
Total elapsed time: 0.065 seconds.

tnom = 27
temp = 27
method = modified trap
totiter = 663
traniter = 657
tranpoints = 242
accept = 238
rejected = 4
matrix size = 27
fillins = 0
solver = Normal
Matrix Compiler1: 746 bytes object code size  0.3/0.1/[0.1]
Matrix Compiler2: 1.37 KB object code size  0.1/0.3/[0.2]

