Circuit: * C:\Users\Lorne\Desktop\Personal Projects\Currently Active\555 Timer Functional & Turing Complete Project\EE\Simulations\555_XOR_Gate.asc

Direct Newton iteration for .op point succeeded.

Date: Thu Dec 30 17:03:52 2021
Total elapsed time: 0.090 seconds.

tnom = 27
temp = 27
method = modified trap
totiter = 1640
traniter = 1632
tranpoints = 438
accept = 397
rejected = 41
matrix size = 69
fillins = 0
solver = Normal
Thread vector: 7.1/5.1[4] 2.1/1.7[4] 1.0/1.4[1] 0.2/1.6[1]  2592/500
Matrix Compiler1: 1.94 KB object code size  1.5/0.8/[0.2]
Matrix Compiler2: 3.57 KB object code size  0.9/1.7/[0.3]

