Circuit: * C:\Users\Lorne\Desktop\Personal Projects\Currently Active\555 Timer Functional & Turing Complete Project\EE\Simulations\555_AND_Gate.asc

Direct Newton iteration for .op point succeeded.

Date: Thu Dec 30 17:07:49 2021
Total elapsed time: 0.048 seconds.

tnom = 27
temp = 27
method = modified trap
totiter = 611
traniter = 606
tranpoints = 222
accept = 216
rejected = 6
matrix size = 27
fillins = 0
solver = Normal
Matrix Compiler1: 818 bytes object code size  0.5/0.1/[0.1]
Matrix Compiler2: 1.42 KB object code size  0.2/0.2/[0.1]

