Circuit: * C:\Users\Lorne\Desktop\Personal Projects\Currently Active\555 Timer Functional & Turing Complete Project\EE\Simulations\Draft1.asc

Direct Newton iteration for .op point succeeded.

Date: Sun Dec 12 17:47:49 2021
Total elapsed time: 0.065 seconds.

tnom = 27
temp = 27
method = modified trap
totiter = 1640
traniter = 1632
tranpoints = 438
accept = 397
rejected = 41
matrix size = 69
fillins = 0
solver = Normal
Matrix Compiler1: 1.94 KB object code size  0.6/0.3/[0.2]
Matrix Compiler2: 3.57 KB object code size  0.3/0.6/[0.3]

